Version 4.1
SHEET 1 1904 680
WIRE 1376 -128 1200 -128
WIRE 1584 -128 1376 -128
WIRE 1200 -80 1200 -128
WIRE 1376 -80 1376 -128
WIRE 1696 -80 1680 -80
WIRE 1792 -80 1776 -80
WIRE 1152 -64 928 -64
WIRE 928 -16 928 -64
WIRE 1584 16 1584 -128
WIRE 1680 16 1680 -80
WIRE 1680 16 1664 16
WIRE 1696 16 1680 16
WIRE 272 32 80 32
WIRE 384 32 384 16
WIRE 384 32 352 32
WIRE 416 32 384 32
WIRE 512 32 496 32
WIRE 1152 32 1152 -64
WIRE 1200 32 1200 0
WIRE 1200 32 1152 32
WIRE 1792 32 1792 -80
WIRE 1792 32 1760 32
WIRE 1856 32 1792 32
WIRE 1696 48 1664 48
WIRE 80 64 80 32
WIRE 1376 64 1376 0
WIRE 1376 64 1152 64
WIRE 1200 80 1200 32
WIRE 1376 80 1376 64
WIRE 1664 96 1664 48
WIRE 1728 96 1664 96
WIRE 1664 112 1664 96
WIRE 928 128 928 64
WIRE 1008 128 928 128
WIRE 1152 128 1152 64
WIRE 1152 128 1008 128
WIRE 1728 128 1728 96
WIRE 1008 160 1008 128
WIRE 80 192 80 144
WIRE 512 192 512 32
WIRE 512 192 80 192
WIRE 1200 208 1200 160
WIRE 1376 208 1376 160
WIRE 1376 208 1200 208
WIRE 1584 208 1584 112
WIRE 1584 208 1376 208
WIRE 80 224 80 192
WIRE 1728 224 1728 208
FLAG 80 224 0
FLAG 384 16 x
FLAG 1856 32 x2
FLAG 1728 224 0
FLAG 1008 160 0
SYMBOL voltage 80 48 R0
WINDOW 123 0 0 Left 0
WINDOW 39 0 0 Left 0
SYMATTR InstName V1
SYMATTR Value 5
SYMBOL res 368 16 R90
WINDOW 0 0 56 VBottom 2
WINDOW 3 32 56 VTop 2
SYMATTR InstName R1
SYMATTR Value {Rload}
SYMBOL res 512 16 R90
WINDOW 0 0 56 VBottom 2
WINDOW 3 32 56 VTop 2
SYMATTR InstName R2
SYMATTR Value 250
SYMBOL voltage 928 -32 R0
WINDOW 123 0 0 Left 0
WINDOW 39 24 124 Left 2
SYMATTR InstName V2
SYMATTR Value 5
SYMATTR SpiceLine Rser=10m
SYMBOL res 1360 64 R0
SYMATTR InstName R3
SYMATTR Value 2.7
SYMBOL res 1360 -96 R0
SYMATTR InstName R4
SYMATTR Value 1782
SYMBOL res 1184 64 R0
SYMATTR InstName R5
SYMATTR Value 3
SYMBOL res 1184 -96 R0
SYMATTR InstName R6
SYMATTR Value {Rload}
SYMBOL OpAmps\\opamp 1728 -32 R0
SYMATTR InstName U1
SYMBOL res 1680 0 R90
WINDOW 0 0 56 VBottom 2
WINDOW 3 32 56 VTop 2
SYMATTR InstName R7
SYMATTR Value 5k
SYMBOL res 1680 96 R90
WINDOW 0 0 56 VBottom 2
WINDOW 3 32 56 VTop 2
SYMATTR InstName R8
SYMATTR Value 5k
SYMBOL res 1744 224 R180
WINDOW 0 36 76 Left 2
WINDOW 3 36 40 Left 2
SYMATTR InstName R9
SYMATTR Value 5k
SYMBOL res 1792 -96 R90
WINDOW 0 0 56 VBottom 2
WINDOW 3 32 56 VTop 2
SYMATTR InstName R10
SYMATTR Value 5k
TEXT 200 -224 Left 2 !.step param Rload 400 4000 100
TEXT 200 -192 Left 2 !.tran 1m
TEXT 152 256 Left 2 !.meas VAVG AVG  V(X)
TEXT 152 280 Left 2 !.meas Pmax MAX  pow(I(R1),2)*{Rload}
TEXT 152 304 Left 2 !.meas Imax MAX  I(R1)
TEXT 1072 -272 Left 2 !.lib opamp.sub
TEXT 968 352 Left 2 !.meas VAVG2 AVG  V(x2)
TEXT 968 376 Left 2 !.meas Pmax2 MAX  pow(I(R6),2)*{Rload}
TEXT 968 400 Left 2 !.meas Imax2 MAX  I(R6)
TEXT 1072 -200 Left 2 !.param Rw=5000
